 Abaqus/Standard 3DEXPERIENCE R2018x                  DATE 15-Jul-2024 TIME 11:20:53
 SUMMARY OF JOB INFORMATION:
 STEP  INC ATT SEVERE EQUIL TOTAL  TOTAL      STEP       INC OF       DOF    IF
               DISCON ITERS ITERS  TIME/    TIME/LPF    TIME/LPF    MONITOR RIKS
               ITERS               FREQ
   1     1   1U    0     4     4  0.00       0.00       1.000     
   1     1   2U    0     4     4  0.00       0.00       0.2500    
   1     1   3U    0     4     4  0.00       0.00       0.06250   
   1     1   4U    0     5     5  0.00       0.00       0.01562   
   1     1   5     0     4     4  0.00391    0.00391    0.003906  
   1     2   1     0     4     4  0.00781    0.00781    0.003906  
   1     3   1     0     4     4  0.0137     0.0137     0.005859  
   1     4   1U    0     7     7  0.0137     0.0137     0.008789  
   1     4   2     0     3     3  0.0159     0.0159     0.002197  
   1     5   1     0     4     4  0.0192     0.0192     0.003296  
   1     6   1     0     4     4  0.0241     0.0241     0.004944  
   1     7   1     0     4     4  0.0315     0.0315     0.007416  
   1     8   1U    0     9     9  0.0315     0.0315     0.01112   
   1     8   2     0     4     4  0.0343     0.0343     0.002781  
   1     9   1     0     4     4  0.0385     0.0385     0.004171  
   1    10   1     0     4     4  0.0447     0.0447     0.006257  
   1    11   1     0     4     4  0.0541     0.0541     0.009386  
   1    12   1U    0     4     4  0.0541     0.0541     0.01408   
   1    12   2U    0     5     5  0.0541     0.0541     0.003520  
   1    12   3     0     4     4  0.0550     0.0550     0.0008799 
   1    13   1U    0     4     4  0.0550     0.0550     0.001320  
   1    13   2     0     2     2  0.0553     0.0553     0.0003300 
   1    14   1     0     2     2  0.0558     0.0558     0.0004949 
   1    15   1     0     2     2  0.0566     0.0566     0.0007424 
   1    16   1     0     2     2  0.0577     0.0577     0.001114  
   1    17   1U    0     5     5  0.0577     0.0577     0.001670  
   1    17   2U    0     4     4  0.0577     0.0577     0.0004176 
   1    17   3U    0     5     5  0.0577     0.0577     0.0001044 
   1    17   4     0     4     4  0.0577     0.0577     2.610e-05 
   1    18   1U    0    10    10  0.0577     0.0577     3.915e-05 
   1    18   2     0     4     4  0.0577     0.0577     1.000e-05 
   1    19   1     0     4     4  0.0577     0.0577     1.500e-05 
   1    20   1     0     2     2  0.0578     0.0578     2.250e-05 
   1    21   1U    0     4     4  0.0578     0.0578     3.375e-05 
   1    21   2U    0     7     7  0.0578     0.0578     1.000e-05 
                          
 THE ANALYSIS HAS NOT BEEN COMPLETED
